LTspice 26.0.2 for Windows
Circuit: C:\Users\dell5490\Downloads\DesignFiles\ACAnalysis.net
Start Time: Thu Jul 16 13:09:35 2026
solver = Normal
Maximum thread count: 4
tnom = 27
temp = 27
method = trap
WARNING: Node stage2:n002 is floating.
ERROR: Node stage2:nc_02 is floating and connected to current source stage2:u1:u1:B17
ERROR: Node stage1:nc_02 is floating and connected to current source stage1:u1:u1:B17

Direct Newton iteration failed to find operating point.
Starting Gmin stepping
Gmin stepping succeeded in finding the operating point.

Total elapsed time: 0.970 seconds.

Files loaded:
C:\Users\dell5490\Downloads\DesignFiles\ACAnalysis.net
C:\Users\dell5490\AppData\Local\LTspice\lib\sub\LTC2067.sub
C:\Users\dell5490\AppData\Local\LTspice\lib\sub\LTC2066.sub

